Circuit: * C:\Users\kou\Desktop\cmos lab\Draft2.asc

.OP point found by inspection.

Date: Tue Mar 01 19:58:58 2022
Total elapsed time: 0.055 seconds.

tnom = 27
temp = 27
method = modified trap
totiter = 2174
traniter = 2174
tranpoints = 1088
accept = 1076
rejected = 12
matrix size = 3
fillins = 0
solver = Normal
Matrix Compiler1: off  [0.0]/0.0/0.0
Matrix Compiler2: 175 bytes object code size  0.0/0.0/[0.0]

