Circuit: * C:\Users\kou\Desktop\cmos lab\Draft1.asc

.OP point found by inspection.

Date: Fri Feb 25 15:28:24 2022
Total elapsed time: 0.027 seconds.

tnom = 27
temp = 27
method = modified trap
totiter = 2166
traniter = 2166
tranpoints = 1084
accept = 1075
rejected = 9
matrix size = 2
fillins = 0
solver = Normal
Matrix Compiler1:       2 opcodes  0.0/[0.0]/0.0
Matrix Compiler2: off  [0.0]/0.0/0.0

