Circuit: * C:\Users\kou\Desktop\cmos lab\question8and9.asc

.OP point found by inspection.

Date: Tue Mar 01 20:25:13 2022
Total elapsed time: 0.032 seconds.

tnom = 27
temp = 27
method = modified trap
totiter = 2166
traniter = 2166
tranpoints = 1084
accept = 1075
rejected = 9
matrix size = 2
fillins = 0
solver = Normal
Matrix Compiler1: off  [0.0]/0.0/0.0
Matrix Compiler2: 96 bytes object code size  0.0/0.0/[0.0]

