Circuit: * C:\Users\kou\Desktop\cmos lab\QUESTION6.asc


Date: Tue Mar 01 20:03:40 2022
Total elapsed time: 0.020 seconds.

tnom = 27
temp = 27
method = trap
totiter = 0
traniter = 0
tranpoints = 0
accept = 0
rejected = 0
matrix size = 3
fillins = 0
solver = Normal

