Circuit: * C:\Users\kou\Desktop\second semester\sensor electronic\Cmoslab\exersize 3\Draft3.asc

Warning: Pd = 0 is less than W.
Warning: Ps = 0 is less than W.
Warning: Pd = 0 is less than W.
Warning: Ps = 0 is less than W.
V2: Missing value, assumed 0V @ DC

Date: Mon Mar 28 15:55:49 2022
Total elapsed time: 0.052 seconds.

tnom = 27
temp = 27
method = trap
totiter = 674
traniter = 0
tranpoints = 0
accept = 0
rejected = 0
matrix size = 5
fillins = 0
solver = Normal
Matrix Compiler1: 204 bytes object code size  0.1/0.1/[0.0]
Matrix Compiler2: 311 bytes object code size  0.1/0.1/[0.1]

