Circuit: * C:\Users\kou\Desktop\second_semester\sensor electronic\Cmoslab\exersize 3\Draft1.asc

Warning: Pd = 0 is less than W.
Warning: Ps = 0 is less than W.
Warning: Pd = 0 is less than W.
Warning: Ps = 0 is less than W.
V2: Missing value, assumed 0V @ DC

Date: Tue May 31 12:24:56 2022
Total elapsed time: 0.064 seconds.

tnom = 27
temp = 27
method = trap
totiter = 674
traniter = 0
tranpoints = 0
accept = 0
rejected = 0
matrix size = 5
fillins = 0
solver = Normal
Matrix Compiler1:      12 opcodes  0.1/[0.0]/0.0
Matrix Compiler2: off  [0.0]/0.1/0.0

