Circuit: * C:\Users\kou\Desktop\Cmoslab\exercise 2\Draft2.asc

Warning: Pd = 0 is less than W.
Warning: Ps = 0 is less than W.
Direct Newton iteration for .op point succeeded.

Date: Fri Mar 04 17:41:09 2022
Total elapsed time: 0.050 seconds.

tnom = 27
temp = 27
method = modified trap
totiter = 2491
traniter = 2479
tranpoints = 1194
accept = 1153
rejected = 41
matrix size = 6
fillins = 0
solver = Normal
Matrix Compiler1:      10 opcodes  0.0/[0.0]/0.0
Matrix Compiler2: off  [0.0]/0.1/0.0

