Circuit: * C:\Users\kou\Desktop\second_semester\sensor electronic\Cmoslab\project\project2.asc

WARNING: Node NC_01 is floating.
WARNING: Node NC_02 is floating.
WARNING: Node N005 is floating.

WARNING: Less than two connections to node NC_01.  This node is used by M9.
WARNING: Less than two connections to node NC_02.  This node is used by M10.
WARNING: Less than two connections to node N005.  This node is used by M11.
Warning: Pd = 0 is less than W.
Warning: Ps = 0 is less than W.
Warning: Pd = 0 is less than W.
Warning: Ps = 0 is less than W.
Warning: Pd = 0 is less than W.
Warning: Ps = 0 is less than W.
Warning: Pd = 0 is less than W.
Warning: Ps = 0 is less than W.
Warning: Pd = 0 is less than W.
Warning: Ps = 0 is less than W.
Warning: Pd = 0 is less than W.
Warning: Ps = 0 is less than W.
Warning: Pd = 0 is less than W.
Warning: Ps = 0 is less than W.
Warning: Pd = 0 is less than W.
Warning: Ps = 0 is less than W.
Direct Newton iteration failed to find .op point.  (Use ".option noopiter" to skip.)
Starting Gmin stepping
Gmin = 10
Gmin = 1.07374
Gmin = 0.115292
Gmin = 0.0123794
Gmin = 0.00132923
Gmin = 0.000142725
Gmin = 1.5325e-005
Gmin = 1.6455e-006
Gmin = 1.76685e-007
Gmin = 1.89714e-008
Gmin = 2.03704e-009
Gmin = 2.18725e-010
Gmin = 2.34854e-011
Gmin = 2.52173e-012
Gmin = 2.70769e-013
Gmin = 0
Gmin stepping succeeded in finding the operating point.


Date: Mon Aug 29 23:55:12 2022
Total elapsed time: 0.350 seconds.

tnom = 27
temp = 27
method = modified trap
totiter = 20069
traniter = 19642
tranpoints = 6360
accept = 5085
rejected = 1275
matrix size = 24
fillins = 14
solver = Normal
Thread vector: 10.2/5.6[2] 1.8/1.2[2] 0.5/0.6[1] 0.1/0.3[1]  2592/500
Matrix Compiler1: 2.82 KB object code size  0.4/0.2/[0.2]
Matrix Compiler2: off  [0.2]/0.3/0.2

