Circuit: * C:\Users\kou\Desktop\Cmoslab\exercise 2\Draft1.asc

Warning: Pd = 0 is less than W.
Warning: Ps = 0 is less than W.
V2: Missing value, assumed 0V @ DC

Date: Thu Mar 03 21:13:44 2022
Total elapsed time: 0.062 seconds.

tnom = 27
temp = 27
method = trap
totiter = 71
traniter = 0
tranpoints = 0
accept = 0
rejected = 0
matrix size = 4
fillins = 0
solver = Normal
Matrix Compiler1: 118 bytes object code size
Matrix Compiler2: 216 bytes object code size
