Circuit: * C:\Users\kou\Desktop\Cmoslab\exercise 2\Draft7.asc

Warning: Pd = 0 is less than W.
Warning: Ps = 0 is less than W.
Direct Newton iteration for .op point succeeded.

Date: Fri Mar 04 17:06:11 2022
Total elapsed time: 0.060 seconds.

tnom = 27
temp = 27
method = modified trap
totiter = 2956
traniter = 2952
tranpoints = 1384
accept = 1276
rejected = 108
matrix size = 5
fillins = 0
solver = Normal
Matrix Compiler1:       7 opcodes  0.0/[0.0]/0.0
Matrix Compiler2: 301 bytes object code size  0.1/0.1/[0.0]

