Circuit: * C:\Users\kou\Desktop\Cmoslab\exercise 2\Draft5.asc

Warning: Pd = 0 is less than W.
Warning: Ps = 0 is less than W.

Date: Fri Mar 04 16:02:00 2022
Total elapsed time: 0.036 seconds.

tnom = 27
temp = 27
method = trap
totiter = 73
traniter = 0
tranpoints = 0
accept = 0
rejected = 0
matrix size = 5
fillins = 0
solver = Normal
Matrix Compiler1: 78 bytes object code size
Matrix Compiler2: 253 bytes object code size
