Circuit: * C:\Users\kou\Desktop\cmos lab\question10and11.asc

WARNING: Node N001 is floating.

.OP point found by inspection.

Date: Tue Mar 01 21:59:32 2022
Total elapsed time: 0.078 seconds.

tnom = 27
temp = 27
method = modified trap
totiter = 2174
traniter = 2174
tranpoints = 1088
accept = 1080
rejected = 8
matrix size = 1
fillins = 0
solver = Normal
Matrix Compiler1: off  0.1/[0.0]/0.1
Matrix Compiler2:       4 opcodes  0.1/[0.0]/0.0

