Circuit: * C:\Users\kou\Desktop\Cmoslab\exersize 1\question15.asc

.OP point found by inspection.

Date: Fri Mar 04 11:31:34 2022
Total elapsed time: 0.098 seconds.

tnom = 27
temp = 27
method = modified trap
totiter = 5064
traniter = 5064
tranpoints = 2533
accept = 2267
rejected = 266
matrix size = 3
fillins = 0
solver = Normal
Matrix Compiler1: 50 bytes object code size  0.1/0.0/[0.0]
Matrix Compiler2: 175 bytes object code size  0.3/0.1/[0.0]

