Circuit: * C:\Users\kou\Desktop\second semester\sensor electronic\Cmoslab\exersize 3\Draft10.asc

Warning: Pd = 0 is less than W.
Warning: Ps = 0 is less than W.
Warning: Pd = 0 is less than W.
Warning: Ps = 0 is less than W.
Warning: Pd = 0 is less than W.
Warning: Ps = 0 is less than W.
Warning: Pd = 0 is less than W.
Warning: Ps = 0 is less than W.
Direct Newton iteration for .op point succeeded.

Date: Sun Apr 17 15:43:49 2022
Total elapsed time: 0.071 seconds.

tnom = 27
temp = 27
method = modified trap
totiter = 2732
traniter = 2720
tranpoints = 1209
accept = 1163
rejected = 46
matrix size = 9
fillins = 4
solver = Normal
Matrix Compiler1: 608 bytes object code size  0.1/0.1/[0.1]
Matrix Compiler2: off  [0.1]/0.1/0.1

