Circuit: * C:\Users\kou\Desktop\second semester\sensor electronic\Cmoslab\exersize 3\Draft8.asc

WARNING: Specified period is not longer than the sum of Trise, Tfall, and Ton for v3.  Increasing period to 6e-008
WARNING: Specified period is not longer than the sum of Trise, Tfall, and Ton for v2.  Increasing period to 6e-008
Warning: Pd = 0 is less than W.
Warning: Ps = 0 is less than W.
Warning: Pd = 0 is less than W.
Warning: Ps = 0 is less than W.
Direct Newton iteration for .op point succeeded.

Date: Fri Mar 18 22:17:00 2022
Total elapsed time: 0.048 seconds.

tnom = 27
temp = 27
method = modified trap
totiter = 2116
traniter = 2109
tranpoints = 1055
accept = 1052
rejected = 3
matrix size = 7
fillins = 0
solver = Normal
Matrix Compiler1: 250 bytes object code size  0.1/0.1/[0.0]
Matrix Compiler2: 483 bytes object code size  0.1/0.1/[0.1]

