Circuit: * C:\Users\kou\Desktop\second_semester\sensor electronic\Cmoslab\exersize 3\project2.asc

WARNING: Node NC_01 is floating.
WARNING: Node NC_02 is floating.
WARNING: Node N005 is floating.

WARNING: Less than two connections to node NC_01.  This node is used by M9.
WARNING: Less than two connections to node NC_02.  This node is used by M10.
WARNING: Less than two connections to node N005.  This node is used by M11.
Warning: Pd = 0 is less than W.
Warning: Ps = 0 is less than W.
Warning: Pd = 0 is less than W.
Warning: Ps = 0 is less than W.
Warning: Pd = 0 is less than W.
Warning: Ps = 0 is less than W.
Warning: Pd = 0 is less than W.
Warning: Ps = 0 is less than W.
Warning: Pd = 0 is less than W.
Warning: Ps = 0 is less than W.
Warning: Pd = 0 is less than W.
Warning: Ps = 0 is less than W.
Direct Newton iteration for .op point succeeded.

Date: Thu May 26 14:05:57 2022
Total elapsed time: 0.158 seconds.

tnom = 27
temp = 27
method = modified trap
totiter = 9483
traniter = 9446
tranpoints = 3080
accept = 2611
rejected = 469
matrix size = 24
fillins = 14
solver = Normal
Thread vector: 9.9/7.0[2] 1.8/1.3[2] 0.5/0.6[1] 0.1/0.3[1]  2592/500
Matrix Compiler1: 2.82 KB object code size  0.4/0.2/[0.2]
Matrix Compiler2: off  [0.2]/0.3/0.3

