Circuit: * C:\Users\kou\Desktop\second semester\sensor electronic\Cmoslab\exersize 3\project.asc

Warning: Pd = 0 is less than W.
Warning: Ps = 0 is less than W.
Warning: Pd = 0 is less than W.
Warning: Ps = 0 is less than W.
Warning: Pd = 0 is less than W.
Warning: Ps = 0 is less than W.
Warning: Pd = 0 is less than W.
Warning: Ps = 0 is less than W.
Direct Newton iteration for .op point succeeded.

Date: Tue Mar 29 09:29:18 2022
Total elapsed time: 0.055 seconds.

tnom = 27
temp = 27
method = modified trap
totiter = 2702
traniter = 2691
tranpoints = 1277
accept = 1214
rejected = 63
matrix size = 9
fillins = 0
solver = Normal
Matrix Compiler1: 296 bytes object code size  0.1/0.1/[0.0]
Matrix Compiler2: 687 bytes object code size  0.1/0.1/[0.0]

